omf/data/Model/admin/zVoltageDrop Test/main.glm
clock {
	timezone PST+8PDT;
	starttime '2000-01-01 00:00:00';
	stoptime '2000-01-02 00:00:00';
};

#set minimum_timestep=60;
#set profiler=1;
#set relax_naming_rules=1;
module generators;
module tape;
module climate;
module residential {
	implicit_enduses NONE;
};

module powerflow {
	solver_method NR;
	NR_iteration_limit 50;
};

object node {
	phases ABCN;
	name BURLINGTON;
	bustype SWING;
	longitude 0;
	nominal_voltage 7200.0;
	latitude 0;
};

object overhead_line {
	phases ACBN;
	from BURLINGTON;
	name 21003;
	longitude 0;
	to node2101121003;
	length 20.6237;
	latitude 0;
	configuration 20531line_configuration98301;
};

object overhead_line {
	phases ACBN;
	from node2101121003;
	name 21011;
	longitude 0;
	to node6830421011;
	length 13.0755;
	latitude 0;
	configuration 20531line_configuration98301;
};

object overhead_line {
	phases ACBN;
	from node6830421011;
	name 68304;
	longitude 0;
	to node6830568304;
	length 14.8233;
	latitude 0;
	configuration 20531line_configuration98301;
};

object overhead_line {
	phases ACBN;
	from node6830421011;
	name 68302;
	longitude 0;
	to node6830368302;
	length 10;
	latitude 0;
	configuration 20531line_configuration98301;
};

object overhead_line {
	phases ACBN;
	from node6830421011;
	name 68300;
	longitude 0;
	to node6830168300;
	length 10;
	latitude 0;
	configuration 20531line_configuration98301;
};

object overhead_line {
	phases ACBN;
	from node6830421011;
	name 68298;
	longitude 0;
	to node6829968298;
	length 19.0913;
	latitude 0;
	configuration 20531line_configuration98301;
};

object overhead_line {
	phases ACBN;
	from node6829968298;
	name 68299;
	longitude 0;
	to nodeR118268299;
	length 24.3563;
	latitude 0;
	configuration 20531line_configuration98301;
};

object fuse {
	phases ACBN;
	from nodeR118268299;
	name R1182;
	current_limit 9999.0 A;
	longitude 0;
	to node20944R1182;
	latitude 0;
};

object overhead_line {
	phases ACBN;
	from node20944R1182;
	name 20944;
	longitude 0;
	to node2083720944;
	length 82.2659;
	latitude 0;
	configuration 20531line_configuration98301;
};

object overhead_line {
	phases ACBN;
	from node2083720944;
	name 20837;
	longitude 0;
	to node2088120837;
	length 87.5465;
	latitude 0;
	configuration 20531line_configuration98301;
};

object overhead_line {
	phases ACBN;
	from node2088120837;
	name 20881;
	longitude 0;
	to node2044520881;
	length 281.156;
	latitude 0;
	configuration 20531line_configuration98301;
};

object overhead_line {
	phases ACBN;
	from node2044520881;
	name 20445;
	longitude 0;
	to node2054920445;
	length 465.786;
	latitude 0;
	configuration 20531line_configuration98301;
};

object overhead_line {
	phases ACBN;
	from node2054920445;
	name 20549;
	longitude 0;
	to node2036920549;
	length 212.612;
	latitude 0;
	configuration 20531line_configuration98301;
};

object overhead_line {
	phases ACBN;
	from node2036920549;
	name 20369;
	longitude 0;
	to node2050620369;
	length 302.735;
	latitude 0;
	configuration 20531line_configuration98301;
};

object overhead_line {
	phases ACBN;
	from node2050620369;
	name 20506;
	longitude 0;
	to node2036720506;
	length 178.526;
	latitude 0;
	configuration 20531line_configuration98301;
};

object overhead_line {
	phases ACBN;
	from node2036720506;
	name 20367;
	longitude 0;
	to nodeT6246302788020367;
	length 144.103;
	latitude 0;
	configuration 20531line_configuration98301;
};

object transformer {
	phases BS;
	from nodeT6246302788020367;
	name T62463027880;
	longitude 0;
	to node62463027798T62463027880;
	latitude 0;
	configuration T62474206624transformer_configuration90001;
};

object triplex_node {
	phases BS;
	power_12 100;
	name 62463027798;
	parent node62463027798T62463027880;
	longitude 0;
	nominal_voltage 120;
	latitude 0;
};

object overhead_line {
	phases ACBN;
	from nodeT6246302788020367;
	name 20286;
	longitude 0;
	to node2024820286;
	length 266.66;
	latitude 0;
	configuration 20531line_configuration98301;
};

object overhead_line {
	phases ACBN;
	from node2024820286;
	name 20248;
	longitude 0;
	to node2014520248;
	length 153.517;
	latitude 0;
	configuration 20531line_configuration98301;
};

object overhead_line {
	phases ACBN;
	from node2014520248;
	name 20145;
	longitude 0;
	to nodeT6246302460920145;
	length 357.003;
	latitude 0;
	configuration 20531line_configuration98301;
};

object overhead_line {
	phases AN;
	from nodeT6246302460920145;
	name 20129;
	longitude 0;
	to nodeF894420129;
	length 27.7071;
	latitude 0;
	configuration 18949line_configuration24501;
};

object fuse {
	phases AN;
	from nodeF894420129;
	name F8944;
	current_limit 9999.0 A;
	longitude 0;
	to node20130F8944;
	latitude 0;
};

object overhead_line {
	phases AN;
	from node20130F8944;
	name 20130;
	longitude 0;
	to nodeT6246302377520130;
	length 103.665;
	latitude 0;
	configuration 18949line_configuration24501;
};

object transformer {
	phases AS;
	from nodeT6246302377520130;
	name T62463023775;
	longitude 0;
	to node62463024800T62463023775;
	latitude 0;
	configuration T62474206624transformer_configuration90001;
};

object triplex_node {
	phases AS;
	power_12 100;
	name 62463024800;
	parent node62463024800T62463023775;
	longitude 0;
	nominal_voltage 120;
	latitude 0;
};

object triplex_node {
	phases AS;
	power_12 100;
	name 62463023758;
	parent node62463024800T62463023775;
	longitude 0;
	nominal_voltage 120;
	latitude 0;
};

object overhead_line {
	phases ACBN;
	from nodeT6246302460920145;
	name 20050;
	longitude 0;
	to nodeT6246302267620050;
	length 287.2;
	latitude 0;
	configuration 20531line_configuration98301;
};

object transformer {
	phases BS;
	from nodeT6246302267620050;
	name T62463022676;
	longitude 0;
	to node62463022720T62463022676;
	latitude 0;
	configuration T62474206624transformer_configuration90001;
};

object triplex_node {
	phases BS;
	power_12 100;
	name 62463022720;
	parent node62463022720T62463022676;
	longitude 0;
	nominal_voltage 120;
	latitude 0;
};

object overhead_line {
	phases ACBN;
	from nodeT6246302267620050;
	name 19663;
	longitude 0;
	to nodeT6246302166319663;
	length 211.226;
	latitude 0;
	configuration 20531line_configuration98301;
};

object transformer {
	phases CS;
	from nodeT6246302166319663;
	name T62463021663;
	longitude 0;
	to node62463021692T62463021663;
	latitude 0;
	configuration T62474206624transformer_configuration90001;
};

object triplex_node {
	phases CS;
	power_12 100;
	name 62463021692;
	parent node62463021692T62463021663;
	longitude 0;
	nominal_voltage 120;
	latitude 0;
};

object overhead_line {
	phases ACBN;
	from nodeT6246302166319663;
	name 19935;
	longitude 0;
	to nodeT6246302067019935;
	length 194.654;
	latitude 0;
	configuration 20531line_configuration98301;
};

object transformer {
	phases BS;
	from nodeT6246302067019935;
	name T62463020670;
	longitude 0;
	to node62463020586T62463020670;
	latitude 0;
	configuration T62474206624transformer_configuration90001;
};

object triplex_node {
	phases BS;
	power_12 100;
	name 62463020586;
	parent node62463020586T62463020670;
	longitude 0;
	nominal_voltage 120;
	latitude 0;
};

object overhead_line {
	phases ACBN;
	from nodeT6246302067019935;
	name 19597;
	longitude 0;
	to node1985219597;
	length 222.044;
	latitude 0;
	configuration 20531line_configuration98301;
};

object overhead_line {
	phases ACBN;
	from node1985219597;
	name 19852;
	longitude 0;
	to nodeT6246301941419852;
	length 273.49;
	latitude 0;
	configuration 20531line_configuration98301;
};

object transformer {
	phases AS;
	from nodeT6246301941419852;
	name T62463019414;
	longitude 0;
	to node62463019437T62463019414;
	latitude 0;
	configuration T62474206624transformer_configuration90001;
};

object triplex_node {
	phases AS;
	power_12 100;
	name 62463019437;
	parent node62463019437T62463019414;
	longitude 0;
	nominal_voltage 120;
	latitude 0;
};

object overhead_line {
	phases CN;
	from nodeT6246301941419852;
	name 19850;
	longitude 0;
	to nodeF757319850;
	length 26.5061;
	latitude 0;
	configuration 16781line_configuration73701;
};

object fuse {
	phases CN;
	from nodeF757319850;
	name F7573;
	current_limit 9999.0 A;
	longitude 0;
	to node19851F7573;
	latitude 0;
};

object overhead_line {
	phases CN;
	from node19851F7573;
	name 19851;
	longitude 0;
	to nodeT6246301946719851;
	length 80.8867;
	latitude 0;
	configuration 16781line_configuration73701;
};

object transformer {
	phases CS;
	from nodeT6246301946719851;
	name T62463019467;
	longitude 0;
	to node62463019498T62463019467;
	latitude 0;
	configuration T62474206624transformer_configuration90001;
};

object triplex_node {
	phases CS;
	power_12 1519.04;
	name 62463019498;
	parent node62463019498T62463019467;
	longitude 0;
	nominal_voltage 120;
	latitude 0;
};

object overhead_line {
	phases CN;
	from nodeT6246301941419852;
	name 19848;
	longitude 0;
	to nodeF794419848;
	length 28.1181;
	latitude 0;
	configuration 16781line_configuration73701;
};

object fuse {
	phases CN;
	from nodeF794419848;
	name F7944;
	current_limit 9999.0 A;
	longitude 0;
	to node19849F7944;
	latitude 0;
};

object overhead_line {
	phases CN;
	from node19849F7944;
	name 19849;
	longitude 0;
	to node1959219849;
	length 241.85;
	latitude 0;
	configuration 16781line_configuration73701;
};

object overhead_line {
	phases CN;
	from node1959219849;
	name 19592;
	longitude 0;
	to node1996419592;
	length 320.096;
	latitude 0;
	configuration 16781line_configuration73701;
};

object overhead_line {
	phases CN;
	from node1996419592;
	name 19964;
	longitude 0;
	to nodeT6246302228919964;
	length 319.967;
	latitude 0;
	configuration 16781line_configuration73701;
};

object transformer {
	phases CS;
	from nodeT6246302228919964;
	name T62463022289;
	longitude 0;
	to node62463022298T62463022289;
	latitude 0;
	configuration T62474206624transformer_configuration90001;
};

object triplex_node {
	phases CS;
	power_12 1655.3;
	name 62463022298;
	parent node62463022298T62463022289;
	longitude 0;
	nominal_voltage 120;
	latitude 0;
};

object overhead_line {
	phases CN;
	from nodeT6246302228919964;
	name 20061;
	longitude 0;
	to node2013220061;
	length 203.088;
	latitude 0;
	configuration 16781line_configuration73701;
};

object overhead_line {
	phases CN;
	from node2013220061;
	name 20132;
	longitude 0;
	to nodeT6246302425720132;
	length 158.947;
	latitude 0;
	configuration 16781line_configuration73701;
};

object transformer {
	phases CS;
	from nodeT6246302425720132;
	name T62463024257;
	longitude 0;
	to node62463025237T62463024257;
	latitude 0;
	configuration T62474206624transformer_configuration90001;
};

object triplex_node {
	phases CS;
	power_12 10133.7;
	name 62463025237;
	parent node62463025237T62463024257;
	longitude 0;
	nominal_voltage 120;
	latitude 0;
};

object overhead_line {
	phases AN;
	from nodeT6246301941419852;
	name 19837;
	longitude 0;
	to nodeF758219837;
	length 24.9997;
	latitude 0;
	configuration 18949line_configuration24501;
};

object fuse {
	phases AN;
	from nodeF758219837;
	name F7582;
	current_limit 9999.0 A;
	longitude 0;
	to node19770F7582;
	latitude 0;
};

object overhead_line {
	phases AN;
	from node19770F7582;
	name 19770;
	longitude 0;
	to nodeT6246301747919770;
	length 260.872;
	latitude 0;
	configuration 18949line_configuration24501;
};

object transformer {
	phases AS;
	from nodeT6246301747919770;
	name T62463017479;
	longitude 0;
	to node62463018503T62463017479;
	latitude 0;
	configuration T62474206624transformer_configuration90001;
};

object triplex_node {
	phases AS;
	power_12 100;
	name 62463018503;
	parent node62463018503T62463017479;
	longitude 0;
	nominal_voltage 120;
	latitude 0;
};

object overhead_line {
	phases AN;
	from nodeT6246301747919770;
	name 19750;
	longitude 0;
	to nodeT6246301745119750;
	length 174.815;
	latitude 0;
	configuration 18949line_configuration24501;
};

object transformer {
	phases AS;
	from nodeT6246301745119750;
	name T62463017451;
	longitude 0;
	to node62463017349T62463017451;
	latitude 0;
	configuration T62474206624transformer_configuration90001;
};

object triplex_node {
	phases AS;
	power_12 100;
	name 62463017349;
	parent node62463017349T62463017451;
	longitude 0;
	nominal_voltage 120;
	latitude 0;
};

object triplex_node {
	phases AS;
	power_12 100;
	name 62463017481;
	parent node62463017349T62463017451;
	longitude 0;
	nominal_voltage 120;
	latitude 0;
};

object overhead_line {
	phases AN;
	from nodeT6246301747919770;
	name 19583;
	longitude 0;
	to nodeT6246301555719583;
	length 467.84;
	latitude 0;
	configuration 18949line_configuration24501;
};

object transformer {
	phases AS;
	from nodeT6246301555719583;
	name T62463015557;
	longitude 0;
	to node62463016405T62463015557;
	latitude 0;
	configuration T62474206624transformer_configuration90001;
};

object triplex_node {
	phases AS;
	power_12 100;
	name 62463016405;
	parent node62463016405T62463015557;
	longitude 0;
	nominal_voltage 120;
	latitude 0;
};

object triplex_node {
	phases AS;
	power_12 100;
	name 62463014593;
	parent node62463016405T62463015557;
	longitude 0;
	nominal_voltage 120;
	latitude 0;
};

object overhead_line {
	phases AN;
	from nodeT6246301555719583;
	name 19342;
	longitude 0;
	to nodeT6246301357619342;
	length 372.94;
	latitude 0;
	configuration 18949line_configuration24501;
};

object transformer {
	phases AS;
	from nodeT6246301357619342;
	name T62463013576;
	longitude 0;
	to node62463013691T62463013576;
	latitude 0;
	configuration T62474206624transformer_configuration90001;
};

object triplex_node {
	phases AS;
	power_12 100;
	name 62463013691;
	parent node62463013691T62463013576;
	longitude 0;
	nominal_voltage 120;
	latitude 0;
};

object overhead_line {
	phases AN;
	from nodeT6246301357619342;
	name 19399;
	longitude 0;
	to nodeT6246301254019399;
	length 288.845;
	latitude 0;
	configuration 18949line_configuration24501;
};

object transformer {
	phases AS;
	from nodeT6246301254019399;
	name T62463012540;
	longitude 0;
	to node62463012543T62463012540;
	latitude 0;
	configuration T62474206624transformer_configuration90001;
};

object triplex_node {
	phases AS;
	power_12 100;
	name 62463012543;
	parent node62463012543T62463012540;
	longitude 0;
	nominal_voltage 120;
	latitude 0;
};

object overhead_line {
	phases AN;
	from nodeT6246301555719583;
	name 19584;
	longitude 0;
	to node1948319584;
	length 235.1;
	latitude 0;
	configuration 18949line_configuration24501;
};

object overhead_line {
	phases AN;
	from node1948319584;
	name 19483;
	longitude 0;
	to nodeT6246301473419483;
	length 316.703;
	latitude 0;
	configuration 18949line_configuration24501;
};

object transformer {
	phases AS;
	from nodeT6246301473419483;
	name T62463014734;
	longitude 0;
	to node62463014628T62463014734;
	latitude 0;
	configuration T62474206624transformer_configuration90001;
};

object triplex_node {
	phases AS;
	power_12 100;
	name 62463014628;
	parent node62463014628T62463014734;
	longitude 0;
	nominal_voltage 120;
	latitude 0;
};

object triplex_node {
	phases AS;
	power_12 100;
	name 62463014757;
	parent node62463014628T62463014734;
	longitude 0;
	nominal_voltage 120;
	latitude 0;
};

object overhead_line {
	phases AN;
	from nodeT6246301473419483;
	name 19474;
	longitude 0;
	to nodeT6246301373719474;
	length 201.012;
	latitude 0;
	configuration 18949line_configuration24501;
};

object transformer {
	phases AS;
	from nodeT6246301373719474;
	name T62463013737;
	longitude 0;
	to node62463013707T62463013737;
	latitude 0;
	configuration T62474206624transformer_configuration90001;
};

object triplex_node {
	phases AS;
	power_12 100;
	name 62463013707;
	parent node62463013707T62463013737;
	longitude 0;
	nominal_voltage 120;
	latitude 0;
};

object overhead_line {
	phases AN;
	from node1948319584;
	name 18573;
	longitude 0;
	to nodeT6246301683718573;
	length 383.447;
	latitude 0;
	configuration 18949line_configuration24501;
};

object transformer {
	phases AS;
	from nodeT6246301683718573;
	name T62463016837;
	longitude 0;
	to node62463016900T62463016837;
	latitude 0;
	configuration T62474206624transformer_configuration90001;
};

object triplex_node {
	phases AS;
	power_12 100;
	name 62463016900;
	parent node62463016900T62463016837;
	longitude 0;
	nominal_voltage 120;
	latitude 0;
};

object overhead_line {
	phases AN;
	from nodeT6246301683718573;
	name 19688;
	longitude 0;
	to nodeT6247419602319688;
	length 321.462;
	latitude 0;
	configuration 18949line_configuration24501;
};

object transformer {
	phases AS;
	from nodeT6247419602319688;
	name T62474196023;
	longitude 0;
	to node62474195011T62474196023;
	latitude 0;
	configuration T62474206624transformer_configuration90001;
};

object triplex_node {
	phases AS;
	power_12 100;
	name 62474195011;
	parent node62474195011T62474196023;
	longitude 0;
	nominal_voltage 120;
	latitude 0;
};

object triplex_node {
	phases AS;
	power_12 100;
	name 62463016996;
	parent node62474195011T62474196023;
	longitude 0;
	nominal_voltage 120;
	latitude 0;
};

object overhead_line {
	phases AN;
	from nodeT6247419602319688;
	name 19558;
	longitude 0;
	to nodeT6247419610319558;
	length 211.036;
	latitude 0;
	configuration 18949line_configuration24501;
};

object transformer {
	phases AS;
	from nodeT6247419610319558;
	name T62474196103;
	longitude 0;
	to node62474195151T62474196103;
	latitude 0;
	configuration T62474206624transformer_configuration90001;
};

object triplex_node {
	phases AS;
	power_12 100;
	name 62474195151;
	parent node62474195151T62474196103;
	longitude 0;
	nominal_voltage 120;
	latitude 0;
};

object overhead_line {
	phases AN;
	from nodeT6247419610319558;
	name 19560;
	longitude 0;
	to nodeT6247419621319560;
	length 202.261;
	latitude 0;
	configuration 18949line_configuration24501;
};

object transformer {
	phases AS;
	from nodeT6247419621319560;
	name T62474196213;
	longitude 0;
	to node62474195268T62474196213;
	latitude 0;
	configuration T62474206624transformer_configuration90001;
};

object triplex_node {
	phases AS;
	power_12 100;
	name 62474195268;
	parent node62474195268T62474196213;
	longitude 0;
	nominal_voltage 120;
	latitude 0;
};

object triplex_node {
	phases AS;
	power_12 100;
	name 62474195267;
	parent node62474195268T62474196213;
	longitude 0;
	nominal_voltage 120;
	latitude 0;
};

object overhead_line {
	phases AN;
	from nodeT6247419621319560;
	name 19683;
	longitude 0;
	to nodeT6247419635319683;
	length 217.697;
	latitude 0;
	configuration 18949line_configuration24501;
};

object transformer {
	phases AS;
	from nodeT6247419635319683;
	name T62474196353;
	longitude 0;
	to node62474196319T62474196353;
	latitude 0;
	configuration T62474206624transformer_configuration90001;
};

object triplex_node {
	phases AS;
	power_12 100;
	name 62474196319;
	parent node62474196319T62474196353;
	longitude 0;
	nominal_voltage 120;
	latitude 0;
};

object triplex_node {
	phases AS;
	power_12 100;
	name 62474197334;
	parent node62474196319T62474196353;
	longitude 0;
	nominal_voltage 120;
	latitude 0;
};

object overhead_line {
	phases AN;
	from nodeT6247419621319560;
	name 19682;
	longitude 0;
	to nodeT6247419721519682;
	length 198.705;
	latitude 0;
	configuration 18949line_configuration24501;
};

object transformer {
	phases AS;
	from nodeT6247419721519682;
	name T62474197215;
	longitude 0;
	to node62474197221T62474197215;
	latitude 0;
	configuration T62474206624transformer_configuration90001;
};

object triplex_node {
	phases AS;
	power_12 100;
	name 62474197221;
	parent node62474197221T62474197215;
	longitude 0;
	nominal_voltage 120;
	latitude 0;
};

object overhead_line {
	phases AN;
	from nodeT6247419610319558;
	name 19559;
	longitude 0;
	to nodeT6247419710519559;
	length 202.235;
	latitude 0;
	configuration 18949line_configuration24501;
};

object transformer {
	phases AS;
	from nodeT6247419710519559;
	name T62474197105;
	longitude 0;
	to node62474196191T62474197105;
	latitude 0;
	configuration T62474206624transformer_configuration90001;
};

object triplex_node {
	phases AS;
	power_12 100;
	name 62474196191;
	parent node62474196191T62474197105;
	longitude 0;
	nominal_voltage 120;
	latitude 0;
};

object overhead_line {
	phases AN;
	from node1948319584;
	name 18572;
	longitude 0;
	to nodeT6246301663418572;
	length 141.214;
	latitude 0;
	configuration 18949line_configuration24501;
};

object transformer {
	phases AS;
	from nodeT6246301663418572;
	name T62463016634;
	longitude 0;
	to node62463016539T62463016634;
	latitude 0;
	configuration T62474206624transformer_configuration90001;
};

object triplex_node {
	phases AS;
	power_12 100;
	name 62463016539;
	parent node62463016539T62463016634;
	longitude 0;
	nominal_voltage 120;
	latitude 0;
};

object overhead_line {
	phases ACBN;
	from nodeT6246301941419852;
	name 19815;
	longitude 0;
	to nodeT6246301824919815;
	length 335.444;
	latitude 0;
	configuration 20531line_configuration98301;
};

object transformer {
	phases BS;
	from nodeT6246301824919815;
	name T62463018249;
	longitude 0;
	to node62463018228T62463018249;
	latitude 0;
	configuration T62474206624transformer_configuration90001;
};

object triplex_node {
	phases BS;
	power_12 100;
	name 62463018228;
	parent node62463018228T62463018249;
	longitude 0;
	nominal_voltage 120;
	latitude 0;
};

object overhead_line {
	phases CN;
	from nodeT6246301824919815;
	name 19816;
	longitude 0;
	to nodeF581519816;
	length 26.6007;
	latitude 0;
	configuration 16781line_configuration73701;
};

object fuse {
	phases CN;
	from nodeF581519816;
	name F5815;
	current_limit 9999.0 A;
	longitude 0;
	to node19563F5815;
	latitude 0;
};

object overhead_line {
	phases CN;
	from node19563F5815;
	name 19563;
	longitude 0;
	to nodeT6246301925319563;
	length 243.066;
	latitude 0;
	configuration 16781line_configuration73701;
};

object transformer {
	phases CS;
	from nodeT6246301925319563;
	name T62463019253;
	longitude 0;
	to node62463019285T62463019253;
	latitude 0;
	configuration T62474206624transformer_configuration90001;
};

object triplex_node {
	phases CS;
	power_12 4534.42;
	name 62463019285;
	parent node62463019285T62463019253;
	longitude 0;
	nominal_voltage 120;
	latitude 0;
};

object overhead_line {
	phases CN;
	from nodeT6246301925319563;
	name 19237;
	longitude 0;
	to nodeT6246302120019237;
	length 305.297;
	latitude 0;
	configuration 16781line_configuration73701;
};

object transformer {
	phases CS;
	from nodeT6246302120019237;
	name T62463021200;
	longitude 0;
	to node62463021167T62463021200;
	latitude 0;
	configuration T62474206624transformer_configuration90001;
};

object triplex_node {
	phases CS;
	power_12 3757.23;
	name 62463021167;
	parent node62463021167T62463021200;
	longitude 0;
	nominal_voltage 120;
	latitude 0;
};

object overhead_line {
	phases ACBN;
	from nodeT6246301824919815;
	name 19765;
	longitude 0;
	to node1974819765;
	length 386.822;
	latitude 0;
	configuration 20531line_configuration98301;
};

object overhead_line {
	phases ACBN;
	from node1974819765;
	name 19748;
	longitude 0;
	to nodeT6246301704519748;
	length 137.975;
	latitude 0;
	configuration 20531line_configuration98301;
};

object transformer {
	phases BS;
	from nodeT6246301704519748;
	name T62463017045;
	longitude 0;
	to node62463017062T62463017045;
	latitude 0;
	configuration T62474206624transformer_configuration90001;
};

object triplex_node {
	phases BS;
	power_12 100;
	name 62463017062;
	parent node62463017062T62463017045;
	longitude 0;
	nominal_voltage 120;
	latitude 0;
};

object overhead_line {
	phases AN;
	from nodeT6246301704519748;
	name 19740;
	longitude 0;
	to nodeF758519740;
	length 25.0001;
	latitude 0;
	configuration 18949line_configuration24501;
};

object fuse {
	phases AN;
	from nodeF758519740;
	name F7585;
	current_limit 9999.0 A;
	longitude 0;
	to node19714F7585;
	latitude 0;
};

object overhead_line {
	phases AN;
	from node19714F7585;
	name 19714;
	longitude 0;
	to nodeT6246301607719714;
	length 118.283;
	latitude 0;
	configuration 18949line_configuration24501;
};

object transformer {
	phases AS;
	from nodeT6246301607719714;
	name T62463016077;
	longitude 0;
	to node62463016038T62463016077;
	latitude 0;
	configuration T62474206624transformer_configuration90001;
};

object triplex_node {
	phases AS;
	power_12 100;
	name 62463016038;
	parent node62463016038T62463016077;
	longitude 0;
	nominal_voltage 120;
	latitude 0;
};

object overhead_line {
	phases AN;
	from nodeT6246301607719714;
	name 18588;
	longitude 0;
	to node1950718588;
	length 218.301;
	latitude 0;
	configuration 18949line_configuration24501;
};

object overhead_line {
	phases AN;
	from node1950718588;
	name 19507;
	longitude 0;
	to nodeT6246301405019507;
	length 286.217;
	latitude 0;
	configuration 18949line_configuration24501;
};

object transformer {
	phases AS;
	from nodeT6246301405019507;
	name T62463014050;
	longitude 0;
	to node62463074975T62463014050;
	latitude 0;
	configuration T62474206624transformer_configuration90001;
};

object triplex_node {
	phases AS;
	power_12 100;
	name 62463074975;
	parent node62463074975T62463014050;
	longitude 0;
	nominal_voltage 120;
	latitude 0;
};

object overhead_line {
	phases AN;
	from nodeT6246301704519748;
	name 19561;
	longitude 0;
	to nodeT6246301620119561;
	length 428.982;
	latitude 0;
	configuration 19519line_configuration15901;
};

object transformer {
	phases AS;
	from nodeT6246301620119561;
	name T62463016201;
	longitude 0;
	to node62463016251T62463016201;
	latitude 0;
	configuration T62474206624transformer_configuration90001;
};

object triplex_node {
	phases AS;
	power_12 100;
	name 62463016251;
	parent node62463016251T62463016201;
	longitude 0;
	nominal_voltage 120;
	latitude 0;
};

object triplex_node {
	phases AS;
	power_12 100;
	name 62463015244;
	parent node62463016251T62463016201;
	longitude 0;
	nominal_voltage 120;
	latitude 0;
};

object overhead_line {
	phases ACBN;
	from nodeT6246301704519748;
	name 19731;
	longitude 0;
	to node5801719731;
	length 155.789;
	latitude 0;
	configuration 20531line_configuration98301;
};

object underground_line {
	phases ACBN;
	from node5801719731;
	name 58017;
	longitude 0;
	to nodeF758658017;
	length 24.9999;
	latitude 0;
	configuration 57825line_configuration40901;
};

object fuse {
	phases ACB;
	from nodeF758658017;
	name F7586;
	current_limit 9999.0 A;
	longitude 0;
	to node58021F7586;
	latitude 0;
};

object underground_line {
	phases ACB;
	from node58021F7586;
	name 58021;
	longitude 0;
	to nodeT6246307892258021;
	length 201.626;
	latitude 0;
	configuration 57825line_configuration40901;
};

object transformer {
	phases AS;
	from nodeT6246307892258021;
	name T62463078922;
	longitude 0;
	to node62463078953T62463078922;
	latitude 0;
	configuration T62474206624transformer_configuration90001;
};

object triplex_node {
	phases AS;
	power_12 3072.58;
	name 62463078953;
	parent node62463078953T62463078922;
	longitude 0;
	nominal_voltage 120;
	latitude 0;
};

object overhead_line {
	phases ACBN;
	from node5801719731;
	name 19589;
	longitude 0;
	to nodeT6246307689919589;
	length 172.639;
	latitude 0;
	configuration 20531line_configuration98301;
};

object transformer {
	phases BS;
	from nodeT6246307689919589;
	name T62463076899;
	longitude 0;
	to node62463076992T62463076899;
	latitude 0;
	configuration T62474206624transformer_configuration90001;
};

object triplex_node {
	phases BS;
	power_12 100;
	name 62463076992;
	parent node62463076992T62463076899;
	longitude 0;
	nominal_voltage 120;
	latitude 0;
};

object triplex_node {
	phases BS;
	power_12 100;
	name 62463076991;
	parent node62463076992T62463076899;
	longitude 0;
	nominal_voltage 120;
	latitude 0;
};

object triplex_node {
	phases BS;
	power_12 100;
	name 62463076869;
	parent node62463076992T62463076899;
	longitude 0;
	nominal_voltage 120;
	latitude 0;
};

object overhead_line {
	phases ACBN;
	from nodeT6246307689919589;
	name 19538;
	longitude 0;
	to nodeT6246307566519538;
	length 561.815;
	latitude 0;
	configuration 20531line_configuration98301;
};

object overhead_line {
	phases AN;
	from nodeT6246307566519538;
	name 19582;
	longitude 0;
	to nodeF758719582;
	length 22.8798;
	latitude 0;
	configuration 19519line_configuration15901;
};

object fuse {
	phases AN;
	from nodeF758719582;
	name F7587;
	current_limit 9999.0 A;
	longitude 0;
	to node19196F7587;
	latitude 0;
};

object overhead_line {
	phases AN;
	from node19196F7587;
	name 19196;
	longitude 0;
	to node1951919196;
	length 64.7094;
	latitude 0;
	configuration 19519line_configuration15901;
};

object line_configuration {
	name 19519line_configuration15901;
	spacing 20531line_configuration98301line_spacing98302;
	conductor_N 16564line_configuration32701overhead_line_conductor32706;
	conductor_A 16564line_configuration32701overhead_line_conductor32706;
	conductor_C 17366line_configuration62801overhead_line_conductor62804;
	conductor_B 17366line_configuration62801overhead_line_conductor62804;
};

object overhead_line {
	phases AN;
	from node1951919196;
	name 19519;
	longitude 0;
	to nodeT6246307477519519;
	length 186.866;
	latitude 0;
	configuration 19519line_configuration15901;
};

object transformer {
	phases AS;
	from nodeT6246307477519519;
	name T62463074775;
	longitude 0;
	to node62463074798T62463074775;
	latitude 0;
	configuration T62474206624transformer_configuration90001;
};

object triplex_node {
	phases AS;
	power_12 100;
	name 62463074798;
	parent node62463074798T62463074775;
	longitude 0;
	nominal_voltage 120;
	latitude 0;
};

object triplex_node {
	phases AS;
	power_12 100;
	name 62463074872;
	parent node62463074798T62463074775;
	longitude 0;
	nominal_voltage 120;
	latitude 0;
};

object overhead_line {
	phases ACBN;
	from nodeT6246307566519538;
	name 19186;
	longitude 0;
	to node1950119186;
	length 169.689;
	latitude 0;
	configuration 20531line_configuration98301;
};

object overhead_line {
	phases ACBN;
	from node1950119186;
	name 19501;
	longitude 0;
	to node1934519501;
	length 293.041;
	latitude 0;
	configuration 20531line_configuration98301;
};

object overhead_line {
	phases ACBN;
	from node1934519501;
	name 19345;
	longitude 0;
	to node1934419345;
	length 421.542;
	latitude 0;
	configuration 20531line_configuration98301;
};

object overhead_line {
	phases CN;
	from node1934419345;
	name 19344;
	longitude 0;
	to nodeF758919344;
	length 25;
	latitude 0;
	configuration 16781line_configuration73701;
};

object fuse {
	phases CN;
	from nodeF758919344;
	name F7589;
	current_limit 9999.0 A;
	longitude 0;
	to node19353F7589;
	latitude 0;
};

object overhead_line {
	phases CN;
	from node19353F7589;
	name 19353;
	longitude 0;
	to nodeT6246307416519353;
	length 235.932;
	latitude 0;
	configuration 16781line_configuration73701;
};

object transformer {
	phases CS;
	from nodeT6246307416519353;
	name T62463074165;
	longitude 0;
	to node62463074197T62463074165;
	latitude 0;
	configuration T62474206624transformer_configuration90001;
};

object triplex_node {
	phases CS;
	power_12 2697.44;
	name 62463074197;
	parent node62463074197T62463074165;
	longitude 0;
	nominal_voltage 120;
	latitude 0;
};

object overhead_line {
	phases CN;
	from nodeT6246307416519353;
	name 19512;
	longitude 0;
	to nodeT6246307416119512;
	length 78.2066;
	latitude 0;
	configuration 16781line_configuration73701;
};

object transformer {
	phases CS;
	from nodeT6246307416119512;
	name T62463074161;
	longitude 0;
	to node62463073088T62463074161;
	latitude 0;
	configuration T62474206624transformer_configuration90001;
};

object triplex_node {
	phases CS;
	power_12 2172.58;
	name 62463073088;
	parent node62463073088T62463074161;
	longitude 0;
	nominal_voltage 120;
	latitude 0;
};

object triplex_node {
	phases CS;
	power_12 787.278;
	name 62463074161;
	parent node62463073088T62463074161;
	longitude 0;
	nominal_voltage 120;
	latitude 0;
};

object overhead_line {
	phases CN;
	from nodeT6246307416119512;
	name 19511;
	longitude 0;
	to node1920219511;
	length 187.008;
	latitude 0;
	configuration 16781line_configuration73701;
};

object overhead_line {
	phases CN;
	from node1920219511;
	name 19202;
	longitude 0;
	to node1970519202;
	length 268.521;
	latitude 0;
	configuration 16781line_configuration73701;
};

object overhead_line {
	phases CN;
	from node1970519202;
	name 19705;
	longitude 0;
	to node1973319705;
	length 144.519;
	latitude 0;
	configuration 16781line_configuration73701;
};

object overhead_line {
	phases CN;
	from node1973319705;
	name 19733;
	longitude 0;
	to node1979319733;
	length 159.822;
	latitude 0;
	configuration 16781line_configuration73701;
};

object overhead_line {
	phases CN;
	from node1979319733;
	name 19793;
	longitude 0;
	to node1957319793;
	length 192.016;
	latitude 0;
	configuration 16781line_configuration73701;
};

object overhead_line {
	phases CN;
	from node1957319793;
	name 19573;
	longitude 0;
	to nodeT6246307912719573;
	length 242.98;
	latitude 0;
	configuration 16781line_configuration73701;
};

object transformer {
	phases CS;
	from nodeT6246307912719573;
	name T62463079127;
	longitude 0;
	to node62463079175T62463079127;
	latitude 0;
	configuration T62474206624transformer_configuration90001;
};

object triplex_node {
	phases CS;
	power_12 2914.44;
	name 62463079175;
	parent node62463079175T62463079127;
	longitude 0;
	nominal_voltage 120;
	latitude 0;
};

object overhead_line {
	phases CN;
	from node1979319733;
	name 19792;
	longitude 0;
	to nodeT6246313995019792;
	length 336;
	latitude 0;
	configuration 16781line_configuration73701;
};

object transformer {
	phases CS;
	from nodeT6246313995019792;
	name T62463139950;
	longitude 0;
	to node62463139865T62463139950;
	latitude 0;
	configuration T62474206624transformer_configuration90001;
};

object triplex_node {
	phases CS;
	power_12 2540.99;
	name 62463139865;
	parent node62463139865T62463139950;
	longitude 0;
	nominal_voltage 120;
	latitude 0;
};

object overhead_line {
	phases CN;
	from node1920219511;
	name 19198;
	longitude 0;
	to nodeT6246307513319198;
	length 115.812;
	latitude 0;
	configuration 16781line_configuration73701;
};

object transformer {
	phases CS;
	from nodeT6246307513319198;
	name T62463075133;
	longitude 0;
	to node62463075194T62463075133;
	latitude 0;
	configuration T62474206624transformer_configuration90001;
};

object triplex_node {
	phases CS;
	power_12 4567.22;
	name 62463075194;
	parent node62463075194T62463075133;
	longitude 0;
	nominal_voltage 120;
	latitude 0;
};

object overhead_line {
	phases ACBN;
	from node1934419345;
	name 19384;
	longitude 0;
	to nodeT6246307203119384;
	length 546.446;
	latitude 0;
	configuration 20531line_configuration98301;
};

object transformer {
	phases BS;
	from nodeT6246307203119384;
	name T62463072031;
	longitude 0;
	to node62463133906T62463072031;
	latitude 0;
	configuration T62474206624transformer_configuration90001;
};

object triplex_node {
	phases BS;
	power_12 100;
	name 62463133906;
	parent node62463133906T62463072031;
	longitude 0;
	nominal_voltage 120;
	latitude 0;
};

object overhead_line {
	phases ACBN;
	from nodeT6246307203119384;
	name 70924;
	longitude 0;
	to node7092570924;
	length 131.068;
	latitude 0;
	configuration 20531line_configuration98301;
};

object overhead_line {
	phases ACBN;
	from node7092570924;
	name 70925;
	longitude 0;
	to nodeSW1250-Bx170925;
	length 222.516;
	latitude 0;
	configuration 20531line_configuration98301;
};

object switch {
	status CLOSED;
	phases ACBN;
	from nodeSW1250-Bx170925;
	name SW1250-Bx1;
	longitude 0;
	to nodeSW1250-Ax1SW1250-Bx1;
	latitude 0;
};

object switch {
	status CLOSED;
	phases ACBN;
	from nodeSW1250-Ax1SW1250-Bx1;
	name SW1250-Ax1;
	longitude 0;
	to node19281SW1250-Ax1;
	latitude 0;
};

object overhead_line {
	phases ACBN;
	from node19281SW1250-Ax1;
	name 19281;
	longitude 0;
	to node1908919281;
	length 25.0002;
	latitude 0;
	configuration 20531line_configuration98301;
};

object overhead_line {
	phases ACBN;
	from node1908919281;
	name 19089;
	longitude 0;
	to nodeT6246313079419089;
	length 226.378;
	latitude 0;
	configuration 20531line_configuration98301;
};

object transformer {
	phases AS;
	from nodeT6246313079419089;
	name T62463130794;
	longitude 0;
	to node62463130850T62463130794;
	latitude 0;
	configuration T62474206624transformer_configuration90001;
};

object triplex_node {
	phases AS;
	power_12 100;
	name 62463130850;
	parent node62463130850T62463130794;
	longitude 0;
	nominal_voltage 120;
	latitude 0;
};

object overhead_line {
	phases ACBN;
	from nodeT6246313079419089;
	name 19165;
	longitude 0;
	to node1900919165;
	length 222.764;
	latitude 0;
	configuration 20531line_configuration98301;
};

object overhead_line {
	phases ACBN;
	from node1900919165;
	name 19009;
	longitude 0;
	to node1875419009;
	length 489.892;
	latitude 0;
	configuration 20531line_configuration98301;
};

object overhead_line {
	phases ACBN;
	from node1875419009;
	name 18754;
	longitude 0;
	to node1875318754;
	length 558.193;
	latitude 0;
	configuration 20531line_configuration98301;
};

object overhead_line {
	phases ACBN;
	from node1875318754;
	name 18753;
	longitude 0;
	to node1875218753;
	length 76.3128;
	latitude 0;
	configuration 20531line_configuration98301;
};

object overhead_line {
	phases ACBN;
	from node1875218753;
	name 18752;
	longitude 0;
	to nodeT6246312914618752;
	length 329.719;
	latitude 0;
	configuration 20531line_configuration98301;
};

object transformer {
	phases BS;
	from nodeT6246312914618752;
	name T62463129146;
	longitude 0;
	to node62463129089T62463129146;
	latitude 0;
	configuration T62474206624transformer_configuration90001;
};

object triplex_node {
	phases BS;
	power_12 100;
	name 62463129089;
	parent node62463129089T62463129146;
	longitude 0;
	nominal_voltage 120;
	latitude 0;
};

object triplex_node {
	phases BS;
	power_12 100;
	name 62463129140;
	parent node62463129089T62463129146;
	longitude 0;
	nominal_voltage 120;
	latitude 0;
};

object triplex_node {
	phases BS;
	power_12 100;
	name 62463129029;
	parent node62463129089T62463129146;
	longitude 0;
	nominal_voltage 120;
	latitude 0;
};

object overhead_line {
	phases ACBN;
	from nodeT6246312914618752;
	name 19041;
	longitude 0;
	to node1909519041;
	length 311.671;
	latitude 0;
	configuration 20531line_configuration98301;
};

object overhead_line {
	phases AN;
	from node1909519041;
	name 19095;
	longitude 0;
	to nodeF824519095;
	length 29.6986;
	latitude 0;
	configuration 18949line_configuration24501;
};

object fuse {
	phases AN;
	from nodeF824519095;
	name F8245;
	current_limit 9999.0 A;
	longitude 0;
	to node19103F8245;
	latitude 0;
};

object overhead_line {
	phases AN;
	from node19103F8245;
	name 19103;
	longitude 0;
	to nodeT6246313125019103;
	length 99.3975;
	latitude 0;
	configuration 18949line_configuration24501;
};

object transformer {
	phases AS;
	from nodeT6246313125019103;
	name T62463131250;
	longitude 0;
	to node62463132202T62463131250;
	latitude 0;
	configuration T62474206624transformer_configuration90001;
};

object triplex_node {
	phases AS;
	power_12 100;
	name 62463132202;
	parent node62463132202T62463131250;
	longitude 0;
	nominal_voltage 120;
	latitude 0;
};

object overhead_line {
	phases AN;
	from nodeT6246313125019103;
	name 19284;
	longitude 0;
	to node1929719284;
	length 278.816;
	latitude 0;
	configuration 18949line_configuration24501;
};

object overhead_line {
	phases AN;
	from node1929719284;
	name 19297;
	longitude 0;
	to node1932919297;
	length 354.071;
	latitude 0;
	configuration 18949line_configuration24501;
};

object overhead_line {
	phases AN;
	from node1932919297;
	name 19329;
	longitude 0;
	to node1934019329;
	length 348.862;
	latitude 0;
	configuration 18949line_configuration24501;
};

object overhead_line {
	phases AN;
	from node1934019329;
	name 19340;
	longitude 0;
	to node1938619340;
	length 238.633;
	latitude 0;
	configuration 18949line_configuration24501;
};

object overhead_line {
	phases AN;
	from node1938619340;
	name 19386;
	longitude 0;
	to nodeT6246313376119386;
	length 333.034;
	latitude 0;
	configuration 18949line_configuration24501;
};

object transformer {
	phases AS;
	from nodeT6246313376119386;
	name T62463133761;
	longitude 0;
	to node62463133761T62463133761;
	latitude 0;
	configuration T62474206624transformer_configuration90001;
};

object triplex_node {
	phases AS;
	power_12 100;
	name 62463133761;
	parent node62463133761T62463133761;
	longitude 0;
	nominal_voltage 120;
	latitude 0;
};

object overhead_line {
	phases AN;
	from nodeT6246313376119386;
	name 19341;
	longitude 0;
	to nodeT6246313468319341;
	length 285.607;
	latitude 0;
	configuration 18949line_configuration24501;
};

object overhead_line {
	phases AN;
	from nodeT6246313468319341;
	name 19521;
	longitude 0;
	to nodeT6246313457819521;
	length 108.49;
	latitude 0;
	configuration 18949line_configuration24501;
};

object transformer {
	phases AS;
	from nodeT6246313457819521;
	name T62463134578;
	longitude 0;
	to node62463134548T62463134578;
	latitude 0;
	configuration T62474206624transformer_configuration90001;
};

object triplex_node {
	phases AS;
	power_12 100;
	name 62463134548;
	parent node62463134548T62463134578;
	longitude 0;
	nominal_voltage 120;
	latitude 0;
};

object triplex_node {
	phases AS;
	power_12 100;
	name 62463135417;
	parent node62463134548T62463134578;
	longitude 0;
	nominal_voltage 120;
	latitude 0;
};

object overhead_line {
	phases A;
	from nodeT6246313468319341;
	name 19316;
	longitude 0;
	to node5796319316;
	length 159.789;
	latitude 0;
	configuration 18949line_configuration24501;
};

object underground_line {
	phases A;
	from node5796319316;
	name 57963;
	longitude 0;
	to nodeT6246313662757963;
	length 215.958;
	latitude 0;
	configuration 57825line_configuration40901;
};

object overhead_line {
	phases AN;
	from node1938619340;
	name 19387;
	longitude 0;
	to nodeT6246313381819387;
	length 222.075;
	latitude 0;
	configuration 18949line_configuration24501;
};

object transformer {
	phases AS;
	from nodeT6246313381819387;
	name T62463133818;
	longitude 0;
	to node62463132895T62463133818;
	latitude 0;
	configuration T62474206624transformer_configuration90001;
};

object triplex_node {
	phases AS;
	power_12 100;
	name 62463132895;
	parent node62463132895T62463133818;
	longitude 0;
	nominal_voltage 120;
	latitude 0;
};

object overhead_line {
	phases AN;
	from node1932919297;
	name 19328;
	longitude 0;
	to nodeT6246313249919328;
	length 252;
	latitude 0;
	configuration 18949line_configuration24501;
};

object transformer {
	phases AS;
	from nodeT6246313249919328;
	name T62463132499;
	longitude 0;
	to node62463132482T62463132499;
	latitude 0;
	configuration T62474206624transformer_configuration90001;
};

object triplex_node {
	phases AS;
	power_12 100;
	name 62463132482;
	parent node62463132482T62463132499;
	longitude 0;
	nominal_voltage 120;
	latitude 0;
};

object overhead_line {
	phases ACBN;
	from node1909519041;
	name 19094;
	longitude 0;
	to nodeT6246313203719094;
	length 351.049;
	latitude 0;
	configuration 20531line_configuration98301;
};

object transformer {
	phases AS;
	from nodeT6246313203719094;
	name T62463132037;
	longitude 0;
	to node62463133009T62463132037;
	latitude 0;
	configuration T62474206624transformer_configuration90001;
};

object triplex_node {
	phases AS;
	power_12 100;
	name 62463133009;
	parent node62463133009T62463132037;
	longitude 0;
	nominal_voltage 120;
	latitude 0;
};

object overhead_line {
	phases ACBN;
	from nodeT6246313203719094;
	name 19393;
	longitude 0;
	to nodeSW1248-A19393;
	length 78.1503;
	latitude 0;
	configuration 20531line_configuration98301;
};

object overhead_line {
	phases AN;
	from node1909519041;
	name 19048;
	longitude 0;
	to nodeF500719048;
	length 29.7713;
	latitude 0;
	configuration 18949line_configuration24501;
};

object fuse {
	phases AN;
	from nodeF500719048;
	name F5007;
	current_limit 9999.0 A;
	longitude 0;
	to node19049F5007;
	latitude 0;
};

object overhead_line {
	phases AN;
	from node19049F5007;
	name 19049;
	longitude 0;
	to node1894919049;
	length 486.611;
	latitude 0;
	configuration 18949line_configuration24501;
};

object line_configuration {
	name 18949line_configuration24501;
	spacing 20531line_configuration98301line_spacing98302;
	conductor_N 16781line_configuration73701overhead_line_conductor73706;
	conductor_A 16781line_configuration73701overhead_line_conductor73706;
	conductor_C 17366line_configuration62801overhead_line_conductor62804;
	conductor_B 17366line_configuration62801overhead_line_conductor62804;
};

object overhead_line {
	phases AN;
	from node1894919049;
	name 18949;
	longitude 0;
	to nodeT6246318883218949;
	length 346.911;
	latitude 0;
	configuration 18949line_configuration24501;
};

object transformer {
	phases AS;
	from nodeT6246318883218949;
	name T62463188832;
	longitude 0;
	to node62463188749T62463188832;
	latitude 0;
	configuration T62474206624transformer_configuration90001;
};

object triplex_node {
	phases AS;
	power_12 100;
	name 62463188749;
	parent node62463188749T62463188832;
	longitude 0;
	nominal_voltage 120;
	latitude 0;
};

object triplex_node {
	phases AS;
	power_12 100;
	name 62463188841;
	parent node62463188749T62463188832;
	longitude 0;
	nominal_voltage 120;
	latitude 0;
};

object overhead_line {
	phases AN;
	from nodeT6246318883218949;
	name 18948;
	longitude 0;
	to nodeT6246318978118948;
	length 375.825;
	latitude 0;
	configuration 19519line_configuration15901;
};

object transformer {
	phases AS;
	from nodeT6246318978118948;
	name T62463189781;
	longitude 0;
	to node62463190800T62463189781;
	latitude 0;
	configuration T62474206624transformer_configuration90001;
};

object triplex_node {
	phases AS;
	power_12 100;
	name 62463190800;
	parent node62463190800T62463189781;
	longitude 0;
	nominal_voltage 120;
	latitude 0;
};

object overhead_line {
	phases AN;
	from nodeT6246318978118948;
	name 19136;
	longitude 0;
	to nodeT6246319059819136;
	length 341.47;
	latitude 0;
	configuration 19519line_configuration15901;
};

object transformer {
	phases AS;
	from nodeT6246319059819136;
	name T62463190598;
	longitude 0;
	to node62463190694T62463190598;
	latitude 0;
	configuration T62474206624transformer_configuration90001;
};

object triplex_node {
	phases AS;
	power_12 100;
	name 62463190694;
	parent node62463190694T62463190598;
	longitude 0;
	nominal_voltage 120;
	latitude 0;
};

object overhead_line {
	phases AN;
	from nodeT6246319059819136;
	name 19096;
	longitude 0;
	to node1855819096;
	length 343.023;
	latitude 0;
	configuration 19519line_configuration15901;
};

object overhead_line {
	phases AN;
	from node1855819096;
	name 18558;
	longitude 0;
	to nodeT6246319350418558;
	length 226.764;
	latitude 0;
	configuration 18949line_configuration24501;
};

object transformer {
	phases AS;
	from nodeT6246319350418558;
	name T62463193504;
	longitude 0;
	to node62463193561T62463193504;
	latitude 0;
	configuration T62474206624transformer_configuration90001;
};

object triplex_node {
	phases AS;
	power_12 100;
	name 62463193561;
	parent node62463193561T62463193504;
	longitude 0;
	nominal_voltage 120;
	latitude 0;
};

object overhead_line {
	phases AN;
	from nodeT6246318883218949;
	name 18907;
	longitude 0;
	to nodeT6246318788818907;
	length 157.693;
	latitude 0;
	configuration 18949line_configuration24501;
};

object transformer {
	phases AS;
	from nodeT6246318788818907;
	name T62463187888;
	longitude 0;
	to node62463188901T62463187888;
	latitude 0;
	configuration T62474206624transformer_configuration90001;
};

object triplex_node {
	phases AS;
	power_12 100;
	name 62463188901;
	parent node62463188901T62463187888;
	longitude 0;
	nominal_voltage 120;
	latitude 0;
};

object overhead_line {
	phases AN;
	from nodeT6246318883218949;
	name 17950;
	longitude 0;
	to node1835917950;
	length 196.101;
	latitude 0;
	configuration 19519line_configuration15901;
};

object overhead_line {
	phases AN;
	from node1835917950;
	name 18359;
	longitude 0;
	to nodeT6246318674218359;
	length 243.492;
	latitude 0;
	configuration 19519line_configuration15901;
};

object transformer {
	phases AS;
	from nodeT6246318674218359;
	name T62463186742;
	longitude 0;
	to node62463186718T62463186742;
	latitude 0;
	configuration T62474206624transformer_configuration90001;
};

object triplex_node {
	phases AS;
	power_12 100;
	name 62463186718;
	parent node62463186718T62463186742;
	longitude 0;
	nominal_voltage 120;
	latitude 0;
};

object triplex_node {
	phases AS;
	power_12 100;
	name 62463186767;
	parent node62463186718T62463186742;
	longitude 0;
	nominal_voltage 120;
	latitude 0;
};

object overhead_line {
	phases AN;
	from nodeT6246318674218359;
	name 18330;
	longitude 0;
	to node1869618330;
	length 198.508;
	latitude 0;
	configuration 19519line_configuration15901;
};

object overhead_line {
	phases AN;
	from node1869618330;
	name 18696;
	longitude 0;
	to node1869518696;
	length 293.785;
	latitude 0;
	configuration 18949line_configuration24501;
};

object overhead_line {
	phases AN;
	from node1869518696;
	name 18695;
	longitude 0;
	to nodeT6246318545318695;
	length 215.575;
	latitude 0;
	configuration 18949line_configuration24501;
};

object transformer {
	phases AS;
	from nodeT6246318545318695;
	name T62463185453;
	longitude 0;
	to node62463186398T62463185453;
	latitude 0;
	configuration T62474206624transformer_configuration90001;
};

object triplex_node {
	phases AS;
	power_12 100;
	name 62463186398;
	parent node62463186398T62463185453;
	longitude 0;
	nominal_voltage 120;
	latitude 0;
};

object triplex_node {
	phases AS;
	power_12 100;
	name 62463186406;
	parent node62463186398T62463185453;
	longitude 0;
	nominal_voltage 120;
	latitude 0;
};

object overhead_line {
	phases AN;
	from nodeT6246318545318695;
	name 18790;
	longitude 0;
	to nodeT6246318632418790;
	length 216.201;
	latitude 0;
	configuration 18949line_configuration24501;
};

object transformer {
	phases AS;
	from nodeT6246318632418790;
	name T62463186324;
	longitude 0;
	to node62463185287T62463186324;
	latitude 0;
	configuration T62474206624transformer_configuration90001;
};

object triplex_node {
	phases AS;
	power_12 100;
	name 62463185287;
	parent node62463185287T62463186324;
	longitude 0;
	nominal_voltage 120;
	latitude 0;
};

object overhead_line {
	phases AN;
	from node1869618330;
	name 18329;
	longitude 0;
	to nodeT6246318657718329;
	length 177.49;
	latitude 0;
	configuration 19519line_configuration15901;
};

object transformer {
	phases AS;
	from nodeT6246318657718329;
	name T62463186577;
	longitude 0;
	to node62463186691T62463186577;
	latitude 0;
	configuration T62474206624transformer_configuration90001;
};

object triplex_node {
	phases AS;
	power_12 100;
	name 62463186691;
	parent node62463186691T62463186577;
	longitude 0;
	nominal_voltage 120;
	latitude 0;
};

object overhead_line {
	phases AN;
	from nodeT6246318674218359;
	name 18358;
	longitude 0;
	to node1889318358;
	length 116.619;
	latitude 0;
	configuration 18949line_configuration24501;
};

object overhead_line {
	phases AN;
	from node1889318358;
	name 18893;
	longitude 0;
	to node1891018893;
	length 245.206;
	latitude 0;
	configuration 18949line_configuration24501;
};

object overhead_line {
	phases AN;
	from node1891018893;
	name 18910;
	longitude 0;
	to node1902718910;
	length 361.047;
	latitude 0;
	configuration 18949line_configuration24501;
};

object overhead_line {
	phases AN;
	from node1902718910;
	name 19027;
	longitude 0;
	to nodeT6246318948219027;
	length 204.81;
	latitude 0;
	configuration 18949line_configuration24501;
};

object transformer {
	phases AS;
	from nodeT6246318948219027;
	name T62463189482;
	longitude 0;
	to node62463189387T62463189482;
	latitude 0;
	configuration T62474206624transformer_configuration90001;
};

object triplex_node {
	phases AS;
	power_12 100;
	name 62463189387;
	parent node62463189387T62463189482;
	longitude 0;
	nominal_voltage 120;
	latitude 0;
};

object overhead_line {
	phases AN;
	from node1894919049;
	name 18991;
	longitude 0;
	to nodeT6246318897818991;
	length 150.83;
	latitude 0;
	configuration 18949line_configuration24501;
};

object transformer {
	phases AS;
	from nodeT6246318897818991;
	name T62463188978;
	longitude 0;
	to node62463128092T62463188978;
	latitude 0;
	configuration T62474206624transformer_configuration90001;
};

object triplex_node {
	phases AS;
	power_12 100;
	name 62463128092;
	parent node62463128092T62463188978;
	longitude 0;
	nominal_voltage 120;
	latitude 0;
};

object overhead_line {
	phases ACBN;
	from node1875218753;
	name 18525;
	longitude 0;
	to node1882318525;
	length 361.26;
	latitude 0;
	configuration 20531line_configuration98301;
};

object overhead_line {
	phases AN;
	from node1882318525;
	name 18823;
	longitude 0;
	to nodeF759118823;
	length 25.0002;
	latitude 0;
	configuration 18949line_configuration24501;
};

object fuse {
	phases AN;
	from nodeF759118823;
	name F7591;
	current_limit 9999.0 A;
	longitude 0;
	to node18675F7591;
	latitude 0;
};

object overhead_line {
	phases AN;
	from node18675F7591;
	name 18675;
	longitude 0;
	to nodeT6246312515318675;
	length 81.4961;
	latitude 0;
	configuration 18949line_configuration24501;
};

object overhead_line {
	phases AN;
	from nodeT6246312515318675;
	name 18674;
	longitude 0;
	to nodeT6246312408718674;
	length 177.052;
	latitude 0;
	configuration 18949line_configuration24501;
};

object transformer {
	phases AS;
	from nodeT6246312408718674;
	name T62463124087;
	longitude 0;
	to node62463124065T62463124087;
	latitude 0;
	configuration T62474206624transformer_configuration90001;
};

object triplex_node {
	phases AS;
	power_12 100;
	name 62463124065;
	parent node62463124065T62463124087;
	longitude 0;
	nominal_voltage 120;
	latitude 0;
};

object overhead_line {
	phases ACBN;
	from node1882318525;
	name 18630;
	longitude 0;
	to node1788618630;
	length 303.262;
	latitude 0;
	configuration 20531line_configuration98301;
};

object overhead_line {
	phases ACBN;
	from node1788618630;
	name 17886;
	longitude 0;
	to nodeT6246312312617886;
	length 240.007;
	latitude 0;
	configuration 20531line_configuration98301;
};

object transformer {
	phases BS;
	from nodeT6246312312617886;
	name T62463123126;
	longitude 0;
	to node62463123162T62463123126;
	latitude 0;
	configuration T62474206624transformer_configuration90001;
};

object triplex_node {
	phases BS;
	power_12 100;
	name 62463123162;
	parent node62463123162T62463123126;
	longitude 0;
	nominal_voltage 120;
	latitude 0;
};

object triplex_node {
	phases BS;
	power_12 100;
	name 62463123039;
	parent node62463123162T62463123126;
	longitude 0;
	nominal_voltage 120;
	latitude 0;
};

object overhead_line {
	phases ACBN;
	from nodeT6246312312617886;
	name 17815;
	longitude 0;
	to nodeT6246312119717815;
	length 258.716;
	latitude 0;
	configuration 20531line_configuration98301;
};

object transformer {
	phases CS;
	from nodeT6246312119717815;
	name T62463121197;
	longitude 0;
	to node62463121169T62463121197;
	latitude 0;
	configuration T62474206624transformer_configuration90001;
};

object triplex_node {
	phases CS;
	power_12 3504.9;
	name 62463121169;
	parent node62463121169T62463121197;
	longitude 0;
	nominal_voltage 120;
	latitude 0;
};

object overhead_line {
	phases ACBN;
	from nodeT6246312119717815;
	name 18225;
	longitude 0;
	to node1809818225;
	length 311.169;
	latitude 0;
	configuration 20531line_configuration98301;
};

object overhead_line {
	phases ACBN;
	from node1809818225;
	name 18098;
	longitude 0;
	to node1802518098;
	length 393.013;
	latitude 0;
	configuration 20531line_configuration98301;
};

object overhead_line {
	phases AN;
	from node1802518098;
	name 18025;
	longitude 0;
	to nodeT6246217832118025;
	length 219.619;
	latitude 0;
	configuration 18949line_configuration24501;
};

object transformer {
	phases AS;
	from nodeT6246217832118025;
	name T62462178321;
	longitude 0;
	to node62462178343T62462178321;
	latitude 0;
	configuration T62474206624transformer_configuration90001;
};

object triplex_node {
	phases AS;
	power_12 100;
	name 62462178343;
	parent node62462178343T62462178321;
	longitude 0;
	nominal_voltage 120;
	latitude 0;
};

object overhead_line {
	phases CN;
	from node1802518098;
	name 18094;
	longitude 0;
	to nodeF759818094;
	length 25;
	latitude 0;
	configuration 16781line_configuration73701;
};

object fuse {
	phases CN;
	from nodeF759818094;
	name F7598;
	current_limit 9999.0 A;
	longitude 0;
	to node17654F7598;
	latitude 0;
};

object overhead_line {
	phases CN;
	from node17654F7598;
	name 17654;
	longitude 0;
	to nodeT6246223799617654;
	length 467.549;
	latitude 0;
	configuration 16781line_configuration73701;
};

object transformer {
	phases CS;
	from nodeT6246223799617654;
	name T62462237996;
	longitude 0;
	to node62462238928T62462237996;
	latitude 0;
	configuration T62474206624transformer_configuration90001;
};

object triplex_node {
	phases CS;
	power_12 3111.26;
	name 62462238928;
	parent node62462238928T62462237996;
	longitude 0;
	nominal_voltage 120;
	latitude 0;
};

object triplex_node {
	phases CS;
	power_12 507.189;
	name 62462238910;
	parent node62462238928T62462237996;
	longitude 0;
	nominal_voltage 120;
	latitude 0;
};

object overhead_line {
	phases CN;
	from nodeT6246223799617654;
	name 17998;
	longitude 0;
	to nodeT6246223796417998;
	length 76.1979;
	latitude 0;
	configuration 16781line_configuration73701;
};

object transformer {
	phases CS;
	from nodeT6246223796417998;
	name T62462237964;
	longitude 0;
	to node62462237962T62462237964;
	latitude 0;
	configuration T62474206624transformer_configuration90001;
};

object triplex_node {
	phases CS;
	power_12 100;
	name 62462237962;
	parent node62462237962T62462237964;
	longitude 0;
	nominal_voltage 120;
	latitude 0;
};

object overhead_line {
	phases CN;
	from nodeT6246223796417998;
	name 17773;
	longitude 0;
	to nodeT6246223698117773;
	length 158.17;
	latitude 0;
	configuration 16781line_configuration73701;
};

object transformer {
	phases CS;
	from nodeT6246223698117773;
	name T62462236981;
	longitude 0;
	to node62462236984T62462236981;
	latitude 0;
	configuration T62474206624transformer_configuration90001;
};

object triplex_node {
	phases CS;
	power_12 3053.22;
	name 62462236984;
	parent node62462236984T62462236981;
	longitude 0;
	nominal_voltage 120;
	latitude 0;
};

object overhead_line {
	phases ACBN;
	from node1802518098;
	name 17756;
	longitude 0;
	to node1753517756;
	length 370.349;
	latitude 0;
	configuration 20531line_configuration98301;
};

object overhead_line {
	phases ACBN;
	from node1753517756;
	name 17535;
	longitude 0;
	to node1655717535;
	length 436.493;
	latitude 0;
	configuration 20531line_configuration98301;
};

object overhead_line {
	phases ACBN;
	from node1655717535;
	name 16557;
	longitude 0;
	to node6806216557;
	length 231.048;
	latitude 0;
	configuration 20531line_configuration98301;
};

object overhead_line {
	phases ACBN;
	from node6806216557;
	name 68062;
	longitude 0;
	to nodeR120168062;
	length 16.7208;
	latitude 0;
	configuration 16564line_configuration32701;
};

object fuse {
	phases ACBN;
	from nodeR120168062;
	name R1201;
	current_limit 9999.0 A;
	longitude 0;
	to node68063R1201;
	latitude 0;
};

object overhead_line {
	phases ACBN;
	from node68063R1201;
	name 68063;
	longitude 0;
	to node1656468063;
	length 13.0467;
	latitude 0;
	configuration 16564line_configuration32701;
};

object line_configuration {
	name 16564line_configuration32701;
	spacing 20531line_configuration98301line_spacing98302;
	conductor_N 16564line_configuration32701overhead_line_conductor32706;
	conductor_A 16564line_configuration32701overhead_line_conductor32706;
	conductor_C 16564line_configuration32701overhead_line_conductor32706;
	conductor_B 16564line_configuration32701overhead_line_conductor32706;
};

object overhead_line_conductor {
	geometric_mean_radius 0.00479;
	resistance 2.44;
	name 16564line_configuration32701overhead_line_conductor32706;
};

object overhead_line {
	phases ACBN;
	from node1656468063;
	name 16564;
	longitude 0;
	to node1744316564;
	length 198.672;
	latitude 0;
	configuration 16564line_configuration32701;
};

object overhead_line {
	phases ACBN;
	from node1744316564;
	name 17443;
	longitude 0;
	to node1756317443;
	length 333.666;
	latitude 0;
	configuration 16564line_configuration32701;
};

object overhead_line {
	phases ACBN;
	from node1756317443;
	name 17563;
	longitude 0;
	to node1739117563;
	length 425.544;
	latitude 0;
	configuration 16564line_configuration32701;
};

...